	/*--------------------------------*- C++ -*----------------------------------*\
	| =========                 |                                                |
	| \\      /  F ield         | cfMesh: A library for mesh generation          | 
	|  \\    /   O peration     |                                                |
	|   \\  /    A nd           | Author: Franjo Juretic                         | 
	|    \\/     M anipulation  | E-mail: franjo.juretic@c-fields.com            |
	\*---------------------------------------------------------------------------*/

	FoamFile
	{
		version   2.0;
		format    ascii;
		class     dictionary;
		location  "system";
		object    meshDict;
	}

	// * * * * * * * * * * * * * * * * * * * * * * * * * * * * * * * * * * * * * //

	surfaceFile "plateWithHole.fms";
	maxCellSize 0.025;
	boundaryCellSize 0.025;
	keepCellsIntersectingBoundary 1;

	objectRefinements
	{
	}

	localRefinement
	{
			"hole.*"
			{
					cellSize 0.025;
			}
	}

	boundaryLayers
	{
		patchBoundaryLayers
		{
			"hole.*"
			{
				nLayers	15;
				thicknessRatio	1.2;
				maxFirstLayerThickness 0.03;
				allowDiscontinuity 1;
			}
			
			"sideWalls.*"
			{
				nLayers	15;
				thicknessRatio	1.2;
				maxFirstLayerThickness 0.03;
				allowDiscontinuity 1;
			}
		}
	}

	renameBoundary
	{

	}

	// ************************************************************************* //


