/*--------------------------------*- C++ -*----------------------------------*\
| =========                 |                                                 |
| \\      /  F ield         | OpenFOAM: The Open Source CFD Toolbox           |
|  \\    /   O peration     | Version:  v2306                                 |
|   \\  /    A nd           | Website:  www.openfoam.com                      |
|    \\/     M anipulation  |                                                 |
\*---------------------------------------------------------------------------*/
FoamFile
{
    version     2.0;
    format      ascii;
    class       dictionary;
    object      snappyHexMeshDict;
}
// * * * * * * * * * * * * * * * * * * * * * * * * * * * * * * * * * * * * * //

castellatedMesh true;
snap            true;
addLayers       true;

geometry
{
    plateWithHole.stl
    {
        type triSurfaceMesh;
        name plate;
		regions
        {
            hole
            {
                name hole;
            }
			topWall
			{
				name topWall;
			}
			bottomWall
			{
				name topWall;
			}
			sideWalls
			{
				name sideWalls;
			}
        }
    }
}


castellatedMeshControls
{

    maxLocalCells 100000;
    maxGlobalCells 2000000;
    minRefinementCells 10;
    maxLoadUnbalance 0.10;

    nCellsBetweenLevels 1;

    features
    (
		
		{
			file "plateWithHole.eMesh";
			levels	((1 1));
		}
    );


    refinementSurfaces
    {
        plate
        {
            level (1 1);
				regions
				{
					hole
					{
						level (1 1);
						patchInfo
						{
							type wall;
						}
					}
					
					bottomWall
					{
						level (0 0);
						patchInfo
						{
							type wall;
						}
					}
					
					topWall
					{
						level (0 0);
						patchInfo
						{
							type wall;
						}
					}
					
					sideWalls
					{
						level (1 1);
						patchInfo
						{
							type wall;
						}
					}
				}
        }
    }

    resolveFeatureAngle 30;

    refinementRegions
    {
    }


    locationInMesh (0 0.4 0);

    allowFreeStandingZoneFaces true;
}


snapControls
{

    nSmoothPatch 5;

    tolerance 4.0;

    nSolveIter 30;

    nRelaxIter 2;

	nFeatureSnapIter 5;

	implicitFeatureSnap false;

	explicitFeatureSnap true;

	multiRegionFeatureSnap false;
}

addLayersControls
{

    relativeSizes false;

    layers
    {
		hole
		{
			nSurfaceLayers	15;
			featureAngle	360;
		}
		
		sideWalls
		{
			nSurfaceLayers	15;
			featureAngle 	90;
		}
    }

    expansionRatio 1.3;

    finalLayerThickness 0.01;

    minThickness 0.00001;

    nGrow -1;

    featureAngle 90;

    slipFeatureAngle 1;

    nRelaxIter 3;

    nSmoothSurfaceNormals 1;

    nSmoothNormals 3;

    nSmoothThickness 10;

    maxFaceThicknessRatio 0.5;

    maxThicknessToMedialRatio 0.3;

    minMedialAxisAngle 90;

    nBufferCellsNoExtrude 0;

    nLayerIter 50;
}

meshQualityControls
{
    #include "meshQualityDict"	
	maxNonOrtho 50;
	maxBoundarySkewness 10;
	maxInternalSkewness 2;
	maxConcave 70;
    nSmoothScale 4;
    errorReduction 0.75;
}

mergeTolerance 1e-6;


// ************************************************************************* //
