/*--------------------------------*- C++ -*----------------------------------*\
  =========                 |
  \\      /  F ield         | OpenFOAM: The Open Source CFD Toolbox
   \\    /   O peration     | Website:  https://openfoam.org
    \\  /    A nd           | Version:  12
     \\/     M anipulation  |
\*---------------------------------------------------------------------------*/
FoamFile
{
    format      ascii;
    class       dictionary;
    object      blockMeshDict;
}
// * * * * * * * * * * * * * * * * * * * * * * * * * * * * * * * * * * * * * //

geometry
{

    cylinder
    {
        type    searchableExtrudedCircle;
        file    "line.vtk";
        radius  0.05;
    }
}

vertices
(
    (0 -0.025  0.025)
	project (0 -0.04 0.04) (cylinder)
	project (0  0.04 0.04) (cylinder)
	(0  0.025  0.025)

	(0  0.025 -0.025)
	project (0  0.04 -0.04) (cylinder)
	project (0 -0.04 -0.04) (cylinder)
	(0 -0.025 -0.025)

	(-0.7 -0.025  0.025)
	project (-0.7 -0.04 0.04) (cylinder)
	project (-0.7  0.04 0.04) (cylinder)
	(-0.7  0.025  0.025)

	(-0.7  0.025 -0.025)
	project (-0.7  0.04 -0.04) (cylinder)
	project (-0.7 -0.04 -0.04) (cylinder)
	(-0.7 -0.025 -0.025)
);

blocks
(

	hex (0 1 2 3 8 9 10 11) 	(25 50 70) simpleGrading ( 1 1 1)
        hex (3 2 5 4 11 10 13 12) 	(25 50 70) simpleGrading ( 1 1 1)
	hex (4 5 6 7 12 13 14 15) 	(25 50 70) simpleGrading ( 1 1 1)
	hex (7 6 1 0 15 14 9 8) 	(25 50 70) simpleGrading ( 1 1 1)
	hex (0 3 4 7 8 11 12 15) 	(50 50 70) simpleGrading ( 1 1 1)

);

edges
(

	project 1 2 (cylinder)
	project 2 5 (cylinder)
	project 5 6 (cylinder)
	project 6 1 (cylinder)

	project 9 10 (cylinder)
	project 10 13 (cylinder)
	project 13 14 (cylinder)
	project 14 9 (cylinder)
);

faces
(
);


defaultPatch
{
    name wall;
    type wall;
}

boundary
(
    inlet
	{
		type	patch;
		faces
		(
			(0 1 2 3)
			(3 2 5 4)
			(4 5 6 7)
			(7 6 1 0)
			(0 3 4 7)
		);
	}

	outlet
	{
		type	patch;
		faces
		(
			(8 9 10 11)
			(11 10 13 12)
			(12 13 14 15)
			(15 14 9 8)
			(8 11 12 15)
		);
	}
);

// ************************************************************************* //
